REMARK  23 active torsions:
REMARK  status: ('A' for Active; 'I' for Inactive)
REMARK    1  A    between atoms: N_1  and  CA_5 
REMARK    2  A    between atoms: CA_5  and  CB_6 
REMARK    3  A    between atoms: CA_5  and  C_10 
REMARK    4  A    between atoms: CB_6  and  CG_7 
REMARK    5  A    between atoms: CG_7  and  CD_8 
REMARK       I    between atoms: CD_8  and  N_13 
REMARK    6  A    between atoms: N_13  and  CA_15 
REMARK    7  A    between atoms: CA_15  and  CB_16 
REMARK    8  A    between atoms: CA_15  and  C_18 
REMARK    9  A    between atoms: CB_16  and  SG_17 
REMARK   10  A    between atoms: SG_17  and  SG_42 
REMARK       I    between atoms: C_18  and  N_20 
REMARK   11  A    between atoms: N_20  and  CA_22 
REMARK   12  A    between atoms: CA_22  and  C_23 
REMARK   13  A    between atoms: N_26  and  CA_30 
REMARK   14  A    between atoms: CA_30  and  CB_31 
REMARK   15  A    between atoms: CA_30  and  C_35 
REMARK   16  A    between atoms: CB_31  and  CG_32 
REMARK   17  A    between atoms: CG_32  and  CD_33 
REMARK       I    between atoms: CD_33  and  N_38 
REMARK   18  A    between atoms: N_38  and  CA_40 
REMARK   19  A    between atoms: CA_40  and  CB_41 
REMARK   20  A    between atoms: CA_40  and  C_43 
REMARK   21  A    between atoms: CB_41  and  SG_42 
REMARK       I    between atoms: C_43  and  N_45 
REMARK   22  A    between atoms: N_45  and  CA_47 
REMARK   23  A    between atoms: CA_47  and  C_48 
ROOT
ATOM      1  N   GLU G   1       3.260   2.486   0.444  0.00  0.00    -0.065 N 
ATOM      2  HT1 GLU G   1       2.503   2.776  -0.206  0.00  0.00     0.275 HD
ATOM      3  HT2 GLU G   1       3.697   1.596   0.128  0.00  0.00     0.275 HD
ATOM      4  HT3 GLU G   1       3.988   3.222   0.541  0.00  0.00     0.275 HD
ENDROOT
BRANCH   1   5
ATOM      5  CA  GLU G   1       2.729   2.348   1.822  0.00  0.00     0.283 C 
BRANCH   5   6
ATOM      6  CB  GLU G   1       1.184   2.572   1.852  0.00  0.00     0.053 C 
BRANCH   6   7
ATOM      7  CG  GLU G   1       0.340   1.695   0.887  0.00  0.00     0.105 C 
BRANCH   7   8
ATOM      8  CD  GLU G   1       0.110   2.329  -0.451  0.00  0.00     0.218 C 
ATOM      9  N   CYS G   2      -1.009   1.970  -1.087  0.00  0.00    -0.347 N 
ATOM     10  HN  CYS G   2      -1.576   1.235  -0.722  0.00  0.00     0.163 HD
ATOM     11  OE1 GLU G   1       0.899   3.148  -0.914  0.00  0.00    -0.274 OA
BRANCH   9  12
ATOM     12  CA  CYS G   2      -1.557   2.650  -2.254  0.00  0.00     0.186 C 
BRANCH  12  13
ATOM     13  CB  CYS G   2      -1.594   1.705  -3.486  0.00  0.00     0.120 C 
BRANCH  13  14
ATOM     14  SG  CYS G   2       0.055   1.154  -4.006  0.00  0.00    -0.095 SA
BRANCH  14  15
ATOM     15  SG  CYS G   5      -0.186  -0.860  -4.081  0.00  0.00    -0.095 SA
BRANCH  15  16
ATOM     16  CB  CYS G   5       1.469  -1.451  -3.620  0.00  0.00     0.120 C 
BRANCH  16  17
ATOM     17  CA  CYS G   5       1.439  -2.498  -2.472  0.00  0.00     0.186 C 
BRANCH  17  18
ATOM     18  C   CYS G   5       2.887  -2.895  -2.227  0.00  0.00     0.241 C 
ATOM     19  O   CYS G   5       3.596  -3.338  -3.127  0.00  0.00    -0.271 OA
ATOM     20  N   GLY G   6       3.360  -2.663  -0.990  0.00  0.00    -0.349 N 
ATOM     21  HN  GLY G   6       2.706  -2.502  -0.255  0.00  0.00     0.163 HD
BRANCH  20  22
ATOM     22  CA  GLY G   6       4.553  -1.860  -0.781  0.00  0.00     0.235 C 
BRANCH  22  23
ATOM     23  C   GLY G   6       4.059  -0.456  -0.397  0.00  0.00     0.191 C 
ATOM     24  OT1 GLY G   6       2.852  -0.299  -0.065  0.00  0.00    -0.647 OA
ATOM     25  OT2 GLY G   6       4.862   0.506  -0.427  0.00  0.00    -0.647 OA
ENDBRANCH  22  23
ENDBRANCH  20  22
ENDBRANCH  17  18
BRANCH  17  26
ATOM     26  N   CYS G   5       0.901  -1.917  -1.249  0.00  0.00    -0.347 N 
ATOM     27  CD  GLU G   4      -0.211  -2.329  -0.635  0.00  0.00     0.218 C 
ATOM     28  OE1 GLU G   4      -1.002  -3.108  -1.157  0.00  0.00    -0.274 OA
ATOM     29  HN  CYS G   5       1.473  -1.217  -0.828  0.00  0.00     0.163 HD
BRANCH  27  30
ATOM     30  CG  GLU G   4      -0.431  -1.807   0.753  0.00  0.00     0.105 C 
BRANCH  30  31
ATOM     31  CB  GLU G   4      -1.269  -2.760   1.648  0.00  0.00     0.053 C 
BRANCH  31  32
ATOM     32  CA  GLU G   4      -2.815  -2.535   1.644  0.00  0.00     0.283 C 
BRANCH  32  33
ATOM     33  N   GLU G   4      -3.353  -2.560   0.263  0.00  0.00    -0.065 N 
ATOM     34  HT1 GLU G   4      -2.599  -2.796  -0.414  0.00  0.00     0.275 HD
ATOM     35  HT2 GLU G   4      -3.792  -1.648   0.023  0.00  0.00     0.275 HD
ATOM     36  HT3 GLU G   4      -4.081  -3.302   0.302  0.00  0.00     0.275 HD
ENDBRANCH  32  33
BRANCH  32  37
ATOM     37  C   GLU G   4      -3.488  -3.641   2.491  0.00  0.00     0.204 C 
ATOM     38  OT1 GLU G   4      -4.315  -4.411   1.927  0.00  0.00    -0.646 OA
ATOM     39  OT2 GLU G   4      -3.166  -3.728   3.703  0.00  0.00    -0.646 OA
ENDBRANCH  32  37
ENDBRANCH  31  32
ENDBRANCH  30  31
ENDBRANCH  27  30
ENDBRANCH  17  26
ENDBRANCH  16  17
ENDBRANCH  15  16
ENDBRANCH  14  15
ENDBRANCH  13  14
ENDBRANCH  12  13
BRANCH  12  40
ATOM     40  C   CYS G   2      -3.004   3.024  -1.966  0.00  0.00     0.241 C 
ATOM     41  O   CYS G   2      -3.724   3.538  -2.820  0.00  0.00    -0.271 OA
ATOM     42  N   GLY G   3      -3.460   2.692  -0.746  0.00  0.00    -0.349 N 
ATOM     43  HN  GLY G   3      -2.790   2.483  -0.038  0.00  0.00     0.163 HD
BRANCH  42  44
ATOM     44  CA  GLY G   3      -4.650   1.871  -0.590  0.00  0.00     0.235 C 
BRANCH  44  45
ATOM     45  C   GLY G   3      -4.158   0.438  -0.332  0.00  0.00     0.191 C 
ATOM     46  OT1 GLY G   3      -2.946   0.255  -0.028  0.00  0.00    -0.647 OA
ATOM     47  OT2 GLY G   3      -4.962  -0.518  -0.433  0.00  0.00    -0.647 OA
ENDBRANCH  44  45
ENDBRANCH  42  44
ENDBRANCH  12  40
ENDBRANCH   9  12
ENDBRANCH   7   8
ENDBRANCH   6   7
ENDBRANCH   5   6
BRANCH   5  48
ATOM     48  C   GLU G   1       3.407   3.380   2.754  0.00  0.00     0.204 C 
ATOM     49  OT1 GLU G   1       4.231   4.195   2.250  0.00  0.00    -0.646 OA
ATOM     50  OT2 GLU G   1       3.091   3.368   3.970  0.00  0.00    -0.646 OA
ENDBRANCH   5  48
ENDBRANCH   1   5
TORSDOF 23
