REMARK  11 active torsions:
REMARK  status: ('A' for Active; 'I' for Inactive)
REMARK    1  A    between atoms: N_1  and  CA_5 
REMARK    2  A    between atoms: CA_5  and  C_10 
REMARK    3  A    between atoms: CA_5  and  CB_6 
REMARK    4  A    between atoms: CB_6  and  CG_7 
REMARK    5  A    between atoms: CG_7  and  CD_8 
REMARK       I    between atoms: CD_8  and  N_13 
REMARK    6  A    between atoms: N_13  and  CA_15 
REMARK    7  A    between atoms: CA_15  and  C_19 
REMARK    8  A    between atoms: CA_15  and  CB_16 
REMARK    9  A    between atoms: CB_16  and  SG_17 
REMARK       I    between atoms: C_19  and  N_21 
REMARK   10  A    between atoms: N_21  and  CA_23 
REMARK   11  A    between atoms: CA_23  and  C_24 
ROOT
ATOM      1  N   GLU G   1      -2.172  -0.164  -2.782  0.00  0.00    -0.065 N 
ATOM      2  HT1 GLU G   1      -1.171   0.114  -2.815  0.00  0.00     0.275 HD
ATOM      3  HT2 GLU G   1      -2.708   0.413  -2.102  0.00  0.00     0.275 HD
ATOM      4  HT3 GLU G   1      -2.607  -0.133  -3.726  0.00  0.00     0.275 HD
ENDROOT
BRANCH   1   5
ATOM      5  CA  GLU G   1      -2.268  -1.618  -2.483  0.00  0.00     0.283 C 
BRANCH   5   6
ATOM      6  C   GLU G   1      -3.087  -2.253  -3.630  0.00  0.00     0.204 C 
ATOM      7  OT2 GLU G   1      -3.336  -3.478  -3.563  0.00  0.00    -0.646 OA
ATOM      8  OT1 GLU G   1      -3.480  -1.501  -4.570  0.00  0.00    -0.646 OA
ENDBRANCH   5   6
BRANCH   5   9
ATOM      9  CB  GLU G   1      -0.842  -2.247  -2.389  0.00  0.00     0.053 C 
BRANCH   9  10
ATOM     10  CG  GLU G   1       0.033  -1.816  -1.174  0.00  0.00     0.105 C 
BRANCH  10  11
ATOM     11  CD  GLU G   1       0.339  -0.352  -1.153  0.00  0.00     0.218 C 
ATOM     12  OE1 GLU G   1       0.477   0.281  -2.196  0.00  0.00    -0.274 OA
ATOM     13  N   CYS G   2       0.379   0.233   0.040  0.00  0.00    -0.347 N 
ATOM     14  HN  CYS G   2       0.288  -0.330   0.857  0.00  0.00     0.163 HD
BRANCH  13  15
ATOM     15  CA  CYS G   2       0.659   1.643   0.271  0.00  0.00     0.185 C 
BRANCH  15  16
ATOM     16  C   CYS G   2       1.638   1.740   1.431  0.00  0.00     0.241 C 
ATOM     17  O   CYS G   2       1.816   2.794   2.039  0.00  0.00    -0.271 OA
ATOM     18  N   GLY G   3       2.247   0.592   1.767  0.00  0.00    -0.349 N 
ATOM     19  HN  GLY G   3       2.169  -0.188   1.151  0.00  0.00     0.163 HD
BRANCH  18  20
ATOM     20  CA  GLY G   3       2.314   0.127   3.141  0.00  0.00     0.235 C 
BRANCH  20  21
ATOM     21  C   GLY G   3       1.278  -1.006   3.269  0.00  0.00     0.191 C 
ATOM     22  OT2 GLY G   3       1.131  -1.540   4.394  0.00  0.00    -0.647 OA
ATOM     23  OT1 GLY G   3       0.628  -1.351   2.238  0.00  0.00    -0.647 OA
ENDBRANCH  20  21
ENDBRANCH  18  20
ENDBRANCH  15  16
BRANCH  15  24
ATOM     24  CB  CYS G   2      -0.634   2.417   0.671  0.00  0.00     0.105 C 
BRANCH  24  25
ATOM     25  SG  CYS G   2      -1.941   2.399  -0.608  0.00  0.00    -0.180 SA
ATOM     26  HG1 CYS G   2      -2.803   3.108   0.106  0.00  0.00     0.101 HD
ENDBRANCH  24  25
ENDBRANCH  15  24
ENDBRANCH  13  15
ENDBRANCH  10  11
ENDBRANCH   9  10
ENDBRANCH   5   9
ENDBRANCH   1   5
TORSDOF 11
